Version 4
SHEET 1 3376 1248
WIRE 560 32 512 32
WIRE 512 64 512 32
WIRE 560 64 560 32
WIRE 288 80 288 32
WIRE 560 144 512 144
WIRE 240 160 96 160
WIRE 288 160 288 144
WIRE 288 160 240 160
WIRE 336 160 288 160
WIRE 512 176 512 144
WIRE 512 176 480 176
WIRE 336 192 336 160
WIRE 352 192 336 192
WIRE 752 208 480 208
WIRE 240 224 240 160
WIRE 352 224 304 224
WIRE 592 240 480 240
WIRE 352 256 176 256
WIRE 96 272 96 240
WIRE 576 272 480 272
WIRE 352 288 320 288
WIRE 576 304 576 272
WIRE 304 320 304 224
WIRE 304 320 224 320
WIRE 592 352 592 240
WIRE 224 400 224 384
WIRE 304 400 224 400
WIRE 320 400 320 288
WIRE 320 400 304 400
WIRE 592 400 592 352
WIRE 480 544 480 304
WIRE 480 544 240 544
WIRE 32 640 -112 640
WIRE 64 640 32 640
WIRE 304 640 304 400
WIRE 304 640 160 640
WIRE 320 640 304 640
WIRE 400 640 320 640
WIRE 576 640 480 640
WIRE 688 640 576 640
WIRE 176 688 176 256
WIRE 176 688 144 688
WIRE 576 688 576 640
WIRE 688 704 688 640
WIRE 32 720 32 640
WIRE 304 720 304 640
WIRE -112 736 -112 640
WIRE 240 768 240 544
WIRE 240 800 240 768
WIRE 256 800 240 800
WIRE -112 848 -112 816
WIRE 32 848 32 784
WIRE 32 848 -112 848
WIRE 304 848 304 816
WIRE 304 848 32 848
WIRE 576 848 576 752
WIRE 576 848 304 848
WIRE 688 848 688 784
WIRE 688 848 576 848
WIRE 304 896 304 848
FLAG 304 896 0
FLAG 512 64 0
FLAG 96 272 0
FLAG 576 304 0
FLAG 752 288 0
FLAG 592 480 0
FLAG 288 32 0
FLAG 592 352 IN
FLAG 176 688 VG1
FLAG 240 768 VG2
FLAG 320 640 SW
FLAG 688 640 VOUT
SYMBOL nmos 64 688 R270
SYMATTR InstName M1
SYMATTR Value IPB032N10N5_L0
SYMATTR Prefix X
SYMBOL nmos 256 720 R0
SYMATTR InstName M2
SYMATTR Value IPB032N10N5_L0
SYMATTR Prefix X
SYMBOL voltage -112 720 R0
WINDOW 123 0 0 Left 0
WINDOW 39 0 0 Left 0
SYMATTR InstName V1
SYMATTR Value 17
SYMBOL ind 384 656 R270
WINDOW 0 32 56 VTop 2
WINDOW 3 5 56 VBottom 2
SYMATTR InstName L1
SYMATTR Value 120µ
SYMBOL cap 560 688 R0
SYMATTR InstName C1
SYMATTR Value 470µ
SYMBOL LM5106_TRANS 416 240 R0
SYMATTR InstName U1
SYMBOL res 544 48 R0
SYMATTR InstName R2
SYMATTR Value 130k
SYMBOL voltage 96 144 R0
WINDOW 123 0 0 Left 0
WINDOW 39 0 0 Left 0
SYMATTR InstName V2
SYMATTR Value 12
SYMBOL cap 208 320 R0
SYMATTR InstName C2
SYMATTR Value 21.5n
SYMBOL diode 240 240 R270
WINDOW 0 32 32 VTop 2
WINDOW 3 0 32 VBottom 2
SYMATTR InstName D1
SYMATTR Value 1N4148
SYMBOL voltage 752 192 R0
WINDOW 123 0 0 Left 0
WINDOW 39 0 0 Left 0
SYMATTR InstName V3
SYMATTR Value 2
SYMBOL voltage 592 384 R0
WINDOW 123 0 0 Left 0
WINDOW 39 0 0 Left 0
SYMATTR InstName V4
SYMATTR Value PULSE(0 3.3 0 0 0 17.5u 25u)
SYMBOL cap 272 80 R0
SYMATTR InstName C3
SYMATTR Value 0.215µ
SYMBOL res 672 688 R0
SYMATTR InstName R1
SYMATTR Value 500
SYMBOL cap 16 720 R0
SYMATTR InstName C4
SYMATTR Value 470µ
TEXT -104 480 Left 2 !.tran 10m
TEXT 1192 136 Left 2 !.SUBCKT IPB032N10N5_L0 drain gate source\n \nLg     gate   g1   6.5n\nLd     drain  d1   0.1n\nLs     source s1   3.6n\nRs     s1     s2   411u  TC=3m\n \nRg     g1     g2   1.3\n \nM1     d2     g2    s2    s2    DMOS    L=1u   W=1u\n.MODEL DMOS NMOS ( KP=461.4  VTO=4.1  THETA=0  VMAX=1.5e5  ETA=0.0035  LEVEL=3)\nRd     d1    d2    2.12m  TC=7m\n \nDbd     s2    d2    Dbt\n.MODEL     Dbt    D(BV=107  M=0.75  CJO=1.5n  VJ=2.5V)\nRsp     s2    s3     0.44\nDbd1    s3    d2     Dbt1\n.MODEL     Dbt1    D(BV=1000   M=0.75  CJO=5.94n  VJ=2.5V)\nDbody   s2   21    DBODY\n.MODEL DBODY  D(IS=53.5p  N=1.12  RS=0.04u  EG=1.12  TT=20n)\nRdiode  d1  21    0.49m  TC=1m\n \n.MODEL   sw    NMOS(VTO=0  KP=10   LEVEL=1)\nMaux      g2   c    a    a   sw\nMaux2     b    d    g2    g2   sw\nEaux      c    a    d2    g2   1\nEaux2     d    g2   d2    g2   -1\nCox       b    d2   1.37n\n.MODEL     DGD    D(M=0.55  CJO=1.37n  VJ=0.5)\nRpar      b    d2   1Meg\nDgd       a    d2   DGD\nRpar2     d2   a    10Meg\nCgs     g2    s2    5.32n\n \n.ENDS IPB032N10N5_L0
TEXT 1192 40 Left 2 !.lib LM5106_TRANS.LIB
